@<TRIPOS>MOLECULE
MP0
 11 10 0 0 0
SMALL
GASTEIGER

@<TRIPOS>ATOM
      1 C1         -0.5590   -1.4050   -0.0020 C.3     1  MP0         0.0479
      2 O1          0.0490   -0.1120   -0.0540 O.3     1  MP0        -0.2901
      3 P1          1.6210   -0.0270    0.0310 P.3     1  MP0         0.4721
      4 O2          2.0330    1.4720   -0.0360 O.3     1  MP0        -0.3026
      5 O3          2.2400   -0.6340   -1.2660 O.3     1  MP0        -0.3026
      6 O4          2.2060   -0.6180    1.2420 O.2     1  MP0        -0.2275
      7 H11        -0.2700   -1.9610    0.9220 H       1  MP0         0.0529
      8 H12        -0.2850   -2.0180   -0.8920 H       1  MP0         0.0529
      9 H13        -1.6670   -1.3000    0.0050 H       1  MP0         0.0529
     10 H2          1.8000    1.9230    0.7840 H       1  MP0         0.2220
     11 H3          1.8930   -0.2030   -2.0490 H       1  MP0         0.2220
@<TRIPOS>BOND
     1     1     8    1
     2     1     2    1
     3     1     9    1
     4     1     7    1
     5     2     3    1
     6     3     5    1
     7     3     4    1
     8     3     6    2
     9     4    10    1
    10     5    11    1
