@<TRIPOS>MOLECULE
MP0
 22 20 0 0 0
SMALL
GASTEIGER

@<TRIPOS>ATOM
      1 C1         -0.5590   -1.4050   -0.0020 C.3     1  MP01        0.0479
      2 O1          0.0490   -0.1120   -0.0540 O.3     1  MP01       -0.2901
      3 P1          1.6210   -0.0270    0.0310 P.3     1  MP01        0.4721
      4 O2          2.0330    1.4720   -0.0360 O.3     1  MP01       -0.3026
      5 O3          2.2400   -0.6340   -1.2660 O.3     1  MP01       -0.3026
      6 O4          2.2060   -0.6180    1.2420 O.2     1  MP01       -0.2275
      7 H11        -0.2700   -1.9610    0.9220 H       1  MP01        0.0529
      8 H12        -0.2850   -2.0180   -0.8920 H       1  MP01        0.0529
      9 H13        -1.6670   -1.3000    0.0050 H       1  MP01        0.0529
     10 H2          1.8000    1.9230    0.7840 H       1  MP01        0.2220
     11 H3          1.8930   -0.2030   -2.0490 H       1  MP01        0.2220
     12 C1         -0.5590   -1.4050    9.9980 C.3     2  MP02        0.0479
     13 O1          0.0490   -0.1120    9.9460 O.3     2  MP02       -0.2901
     14 P1          1.6210   -0.0270   10.0310 P.3     2  MP02        0.4721
     15 O2          2.0330    1.4720    9.9640 O.3     2  MP02       -0.3026
     16 O3          2.2400   -0.6340    8.7340 O.3     2  MP02       -0.3026
     17 O4          2.2060   -0.6180   11.2420 O.2     2  MP02       -0.2275
     18 H11        -0.2700   -1.9610   10.9220 H       2  MP02        0.0529
     19 H12        -0.2850   -2.0180    9.1080 H       2  MP02        0.0529
     20 H13        -1.6670   -1.3000   10.0050 H       2  MP02        0.0529
     21 H2          1.8000    1.9230   10.7840 H       2  MP02        0.2220
     22 H3          1.8930   -0.2030    7.9510 H       2  MP02        0.2220
@<TRIPOS>BOND
     1     1     8    1
     2     1     2    1
     3     1     9    1
     4     1     7    1
     5     2     3    1
     6     3     5    1
     7     3     4    1
     8     3     6    2
     9     4    10    1
    10     5    11    1
    11    12    19    1
    12    12    13    1
    13    12    20    1
    14    12    18    1
    15    13    14    1
    16    14    16    1
    17    14    15    1
    18    14    17    2
    19    15    21    1
    20    16    22    1
